
#======================================================================
# CRYSTAL DATA
#----------------------------------------------------------------------
data_VESTA_phase_1

_chemical_name_common                  'CONTCAR                               '
_cell_length_a                         12.331300
_cell_length_b                         12.829200
_cell_length_c                         19.994400
_cell_angle_alpha                      89.996696
_cell_angle_beta                       89.998299
_cell_angle_gamma                      89.999496
_cell_volume                           3163.128245
_space_group_name_H-M_alt              'P 1'
_space_group_IT_number                 1

loop_
_space_group_symop_operation_xyz
   'x, y, z'

loop_
   _atom_site_label
   _atom_site_occupancy
   _atom_site_fract_x
   _atom_site_fract_y
   _atom_site_fract_z
   _atom_site_adp_type
   _atom_site_U_iso_or_equiv
   _atom_site_type_symbol
   C1         1.0     0.055744     0.055151     0.049172    Uiso  ? C
   C2         1.0     0.156119     0.110488     0.049253    Uiso  ? C
   C3         1.0     0.156100     0.221355     0.048383    Uiso  ? C
   C4         1.0     0.055956     0.276643     0.047350    Uiso  ? C
   C5         1.0     0.256580     0.055495     0.050923    Uiso  ? C
   C6         1.0     0.356935     0.111299     0.053797    Uiso  ? C
   C7         1.0     0.356597     0.223236     0.053621    Uiso  ? C
   C8         1.0     0.255936     0.277147     0.049775    Uiso  ? C
   C9         1.0     0.456645     0.055002     0.057016    Uiso  ? C
   C10        1.0     0.556245     0.112510     0.059647    Uiso  ? C
   C11        1.0     0.556332     0.225527     0.061058    Uiso  ? C
   C12        1.0     0.455456     0.282210     0.057813    Uiso  ? C
   C13        1.0     0.655836     0.052980     0.059353    Uiso  ? C
   C14        1.0     0.755127     0.110581     0.056314    Uiso  ? C
   C15        1.0     0.755807     0.222922     0.056544    Uiso  ? C
   C16        1.0     0.657299     0.282880     0.062341    Uiso  ? C
   C17        1.0     0.854852     0.054075     0.053063    Uiso  ? C
   C18        1.0     0.955233     0.110047     0.050425    Uiso  ? C
   C19        1.0     0.955670     0.221529     0.049601    Uiso  ? C
   C20        1.0     0.855964     0.277977     0.052160    Uiso  ? C
   C21        1.0     0.056982     0.387689     0.045509    Uiso  ? C
   C22        1.0     0.156074     0.443821     0.045388    Uiso  ? C
   C23        1.0     0.155947     0.554538     0.044587    Uiso  ? C
   C24        1.0     0.056951     0.610894     0.043886    Uiso  ? C
   C25        1.0     0.255885     0.388322     0.048510    Uiso  ? C
   C26        1.0     0.355074     0.443110     0.052678    Uiso  ? C
   C27        1.0     0.354765     0.556195     0.054205    Uiso  ? C
   C28        1.0     0.254754     0.610434     0.047870    Uiso  ? C
   C29        1.0     0.760811     0.449257     0.057432    Uiso  ? C
   C30        1.0     0.858074     0.389470     0.050683    Uiso  ? C
   C31        1.0     0.957796     0.443862     0.046209    Uiso  ? C
   C32        1.0     0.958147     0.554966     0.045381    Uiso  ? C
   C33        1.0     0.858287     0.609505     0.049191    Uiso  ? C
   C34        1.0     0.056296     0.721666     0.044700    Uiso  ? C
   C35        1.0     0.154968     0.777819     0.046160    Uiso  ? C
   C36        1.0     0.155957     0.888840     0.047789    Uiso  ? C
   C37        1.0     0.055797     0.944193     0.048369    Uiso  ? C
   C38        1.0     0.253921     0.721545     0.048562    Uiso  ? C
   C39        1.0     0.352920     0.776206     0.053554    Uiso  ? C
   C40        1.0     0.355695     0.887799     0.053598    Uiso  ? C
   C41        1.0     0.256122     0.944091     0.050359    Uiso  ? C
   C42        1.0     0.449740     0.717084     0.061624    Uiso  ? C
   C43        1.0     0.554441     0.883001     0.062025    Uiso  ? C
   C44        1.0     0.455993     0.942956     0.057494    Uiso  ? C
   C45        1.0     0.756442     0.882796     0.057285    Uiso  ? C
   C46        1.0     0.655730     0.939585     0.060480    Uiso  ? C
   C47        1.0     0.857966     0.722193     0.050101    Uiso  ? C
   C48        1.0     0.956551     0.777216     0.047083    Uiso  ? C
   C49        1.0     0.956177     0.888394     0.049224    Uiso  ? C
   C50        1.0     0.855193     0.942019     0.052951    Uiso  ? C
   C51        1.0     0.662675     0.393286     0.067903    Uiso  ? C
   C52        1.0     0.549394     0.772408     0.066930    Uiso  ? C
   N1         1.0     0.452125     0.390451     0.058028    Uiso  ? N
   N2         1.0     0.449252     0.608809     0.064084    Uiso  ? N
   N3         1.0     0.762815     0.557545     0.055325    Uiso  ? N
   N4         1.0     0.760056     0.773669     0.057640    Uiso  ? N
   Fe1        1.0     0.655297     0.672312     0.080486    Uiso  ? Fe
   Ni1        1.0     0.555454     0.487668     0.086131    Uiso  ? Ni
   O1         1.0     0.609158     0.537934     0.166893    Uiso  ? O
   O2         1.0     0.646225     0.641304     0.167432    Uiso  ? O
